Version 4
SHEET 1 880 1044
WIRE -544 -192 -576 -192
WIRE -96 -192 -544 -192
WIRE -96 -144 -96 -192
WIRE -320 -64 -368 -64
WIRE -256 -64 -320 -64
WIRE -144 -64 -192 -64
WIRE -576 16 -576 -192
WIRE -224 80 -224 -48
WIRE -96 80 -96 -48
WIRE -96 80 -224 80
WIRE -16 80 -96 80
WIRE 96 80 16 80
WIRE 224 80 176 80
WIRE 368 80 304 80
WIRE 464 80 368 80
WIRE 496 80 464 80
WIRE 368 144 368 80
WIRE 0 176 0 96
WIRE 48 176 0 176
WIRE 96 176 48 176
WIRE 496 176 496 80
WIRE -96 192 -96 80
WIRE 368 240 368 208
WIRE -576 368 -576 96
WIRE -96 368 -96 256
WIRE -96 368 -576 368
WIRE 368 368 368 320
WIRE 368 368 -96 368
WIRE 496 368 496 256
WIRE 496 368 368 368
WIRE -576 416 -576 368
WIRE 112 496 16 496
WIRE 160 496 112 496
WIRE 160 656 160 496
WIRE 208 656 160 656
WIRE 384 656 304 656
WIRE 416 656 384 656
WIRE -208 688 -240 688
WIRE -32 688 -208 688
WIRE 144 704 32 704
WIRE 208 704 144 704
WIRE -96 720 -144 720
WIRE -32 720 -96 720
WIRE -240 784 -336 784
WIRE -144 784 -144 720
WIRE -144 784 -176 784
WIRE -208 944 -208 816
WIRE -208 944 -336 944
FLAG -576 416 0
FLAG 464 80 out
FLAG -544 -192 in
FLAG 48 176 isw
FLAG 384 656 gate
FLAG -208 688 isw
FLAG -96 720 ip
FLAG 144 704 comp
FLAG 112 496 clk
FLAG -320 -64 gate
SYMBOL ind 208 96 R270
WINDOW 0 32 56 VTop 2
WINDOW 3 5 56 VBottom 2
SYMATTR InstName L1
SYMATTR Value 100µ
SYMBOL cap 352 144 R0
SYMATTR InstName C1
SYMATTR Value 10µ
SYMBOL res 480 160 R0
SYMATTR InstName R1
SYMATTR Value 5
SYMBOL voltage -576 0 R0
SYMATTR InstName V1
SYMATTR Value 10
SYMBOL res 192 64 R90
WINDOW 0 0 56 VBottom 2
WINDOW 3 32 56 VTop 2
SYMATTR InstName R2
SYMATTR Value 50m
SYMBOL res 352 224 R0
SYMATTR InstName R3
SYMATTR Value 200m
SYMBOL Control\\isense 0 80 R0
WINDOW 0 0 -28 Bottom 2
SYMATTR InstName U4
SYMBOL Control\\comp 0 704 R0
WINDOW 3 -7 27 Left 2
WINDOW 123 -2 55 Left 2
SYMATTR Value Vhigh=1
SYMATTR Value2 Vlow=0
SYMATTR InstName U3
SYMBOL Control\\clk -16 496 R0
WINDOW 38 -72 19 Bottom 2
WINDOW 3 3 74 Bottom 2
WINDOW 123 7 107 Bottom 2
WINDOW 39 2 135 Bottom 2
SYMATTR Value tdelay=0 Vhigh=1
SYMATTR Value2 SR=1e8 ton=1u
SYMATTR InstName U5
SYMBOL Digital\\srflop 256 608 R0
SYMATTR InstName A1
SYMBOL Control\\constant -368 784 R0
WINDOW 3 -9 64 Bottom 2
SYMATTR Value K=0.9
SYMATTR InstName U6
SYMBOL nmos -144 -144 R0
SYMATTR InstName M1
SYMATTR Value IRF530
SYMBOL Control\\idiode -80 256 R180
WINDOW 3 24 -28 Left 2
WINDOW 123 24 -56 Left 2
SYMATTR InstName U1
SYMBOL Control\\adder2 -208 784 R0
WINDOW 0 0 -43 Bottom 2
SYMATTR InstName U2
SYMBOL Control\\step -368 944 R0
WINDOW 3 -3 63 Bottom 2
WINDOW 123 5 97 Bottom 2
SYMATTR Value A=0.6
SYMATTR Value2 td=300u SR=1e8
SYMATTR InstName U7
SYMBOL Control\\driver -224 -64 R0
WINDOW 3 39 45 Bottom 2
SYMATTR Value k=15
SYMATTR InstName U8
TEXT 72 -56 Left 2 !.tran 0 1.2m 0 0.1u
TEXT 80 -96 Left 2 !.options reltol=1m
